Version 4
SHEET 1 1544 680
WIRE 208 -160 160 -160
WIRE 400 -160 272 -160
WIRE 160 -32 160 -160
WIRE 208 -32 160 -32
WIRE 400 -32 400 -160
WIRE 400 -32 288 -32
WIRE 1536 -16 1312 -16
WIRE 1312 80 1312 -16
WIRE 1344 80 1312 80
WIRE 32 96 -48 96
WIRE 160 96 160 -32
WIRE 160 96 112 96
WIRE 224 96 160 96
WIRE 1536 96 1536 -16
WIRE 1536 96 1408 96
WIRE 400 112 400 -32
WIRE 400 112 288 112
WIRE 928 112 816 112
WIRE 1072 112 1008 112
WIRE 1120 112 1072 112
WIRE 1280 112 1200 112
WIRE 1344 112 1280 112
WIRE 224 128 160 128
WIRE -48 160 -48 96
WIRE 160 176 160 128
WIRE 816 192 816 112
WIRE 1072 240 1072 112
WIRE 1280 240 1280 112
WIRE -48 288 -48 240
WIRE 1280 336 1280 304
WIRE 816 352 816 272
WIRE 1072 416 1072 304
WIRE 1536 416 1536 96
WIRE 1536 416 1072 416
FLAG 160 176 0
FLAG -48 288 0
FLAG 1280 336 0
FLAG 816 352 0
SYMBOL Opamps\\opamp 256 48 R0
SYMATTR InstName U1
SYMBOL res 128 80 R90
WINDOW 0 0 56 VBottom 2
WINDOW 3 32 56 VTop 2
SYMATTR InstName R9
SYMATTR Value 1k
SYMBOL res 304 -48 R90
WINDOW 0 0 56 VBottom 2
WINDOW 3 32 56 VTop 2
SYMATTR InstName R10
SYMATTR Value 1k
SYMBOL cap 272 -176 R90
WINDOW 0 0 32 VBottom 2
WINDOW 3 32 32 VTop 2
SYMATTR InstName C4
SYMATTR Value 22.736n
SYMBOL voltage -48 144 R0
WINDOW 123 24 124 Left 2
WINDOW 39 0 0 Left 0
SYMATTR InstName V1
SYMATTR Value ""
SYMATTR Value2 AC 1
SYMBOL res 1024 96 R90
WINDOW 0 0 56 VBottom 2
WINDOW 3 32 56 VTop 2
SYMATTR InstName R11
SYMBOL res 1216 96 R90
WINDOW 0 0 56 VBottom 2
WINDOW 3 32 56 VTop 2
SYMATTR InstName R12
SYMBOL cap 1056 240 R0
SYMATTR InstName C5
SYMBOL Opamps\\opamp 1376 32 R0
SYMATTR InstName U2
SYMBOL cap 1264 240 R0
SYMATTR InstName C6
SYMBOL voltage 816 176 R0
WINDOW 123 24 124 Left 2
WINDOW 39 0 0 Left 0
SYMATTR InstName V2
SYMATTR Value ""
SYMATTR Value2 AC 1
TEXT 128 264 Left 2 !.ac dec 1k 1m 100k
TEXT -304 -80 Left 2 !.lib opamp.sub
