Version 4
SHEET 1 2240 680
WIRE 208 -160 160 -160
WIRE 400 -160 272 -160
WIRE 1280 -160 1056 -160
WIRE 1056 -64 1056 -160
WIRE 1088 -64 1056 -64
WIRE 1280 -48 1280 -160
WIRE 1280 -48 1152 -48
WIRE 160 -32 160 -160
WIRE 208 -32 160 -32
WIRE 400 -32 400 -160
WIRE 400 -32 288 -32
WIRE 448 -32 400 -32
WIRE 672 -32 560 -32
WIRE 816 -32 752 -32
WIRE 864 -32 816 -32
WIRE 1024 -32 944 -32
WIRE 1088 -32 1024 -32
WIRE 32 96 -48 96
WIRE 160 96 160 -32
WIRE 160 96 112 96
WIRE 224 96 160 96
WIRE 816 96 816 -32
WIRE 1024 96 1024 -32
WIRE 400 112 400 -32
WIRE 400 112 288 112
WIRE 224 128 160 128
WIRE 2160 128 2160 48
WIRE -48 160 -48 96
WIRE 160 176 160 128
WIRE 1024 192 1024 160
WIRE 816 272 816 160
WIRE 1280 272 1280 -48
WIRE 1280 272 816 272
WIRE -48 288 -48 240
WIRE 2160 288 2160 208
FLAG 160 176 0
FLAG -48 288 0
FLAG 1024 192 0
FLAG 2160 288 0
FLAG 448 -32 Vx
FLAG 560 -32 Vx
SYMBOL Opamps\\opamp 256 48 R0
SYMATTR InstName U1
SYMBOL res 128 80 R90
WINDOW 0 0 56 VBottom 2
WINDOW 3 32 56 VTop 2
SYMATTR InstName R9
SYMATTR Value 1k
SYMBOL res 304 -48 R90
WINDOW 0 0 56 VBottom 2
WINDOW 3 32 56 VTop 2
SYMATTR InstName R10
SYMATTR Value 1k
SYMBOL cap 272 -176 R90
WINDOW 0 0 32 VBottom 2
WINDOW 3 32 32 VTop 2
SYMATTR InstName C4
SYMATTR Value 22.736n
SYMBOL voltage -48 144 R0
WINDOW 123 24 124 Left 2
WINDOW 39 0 0 Left 0
SYMATTR InstName V1
SYMATTR Value ""
SYMATTR Value2 AC 1
SYMBOL res 768 -48 R90
WINDOW 0 0 56 VBottom 2
WINDOW 3 32 56 VTop 2
SYMATTR InstName R11
SYMATTR Value 16k
SYMBOL res 960 -48 R90
WINDOW 0 0 56 VBottom 2
WINDOW 3 32 56 VTop 2
SYMATTR InstName R12
SYMATTR Value 16k
SYMBOL cap 800 96 R0
SYMATTR InstName C5
SYMATTR Value 1n
SYMBOL Opamps\\opamp 1120 -112 R0
SYMATTR InstName U2
SYMBOL cap 1008 96 R0
SYMATTR InstName C6
SYMATTR Value 1n
SYMBOL voltage 2160 112 R0
WINDOW 123 24 124 Left 2
WINDOW 39 0 0 Left 0
SYMATTR InstName V2
SYMATTR Value ""
SYMATTR Value2 AC 1
TEXT 128 264 Left 2 !.ac dec 1k 1m 10meg
TEXT -304 -80 Left 2 !.lib opamp.sub
