Version 4
SHEET 1 880 680
WIRE -64 336 -64 256
WIRE -128 384 -176 384
WIRE -64 480 -64 432
WIRE -64 592 -64 560
FLAG -64 592 0
FLAG -64 256 Vdd
SYMBOL npn -128 336 R0
SYMATTR InstName Q1
SYMATTR Value 2N2222
SYMBOL res -80 464 R0
SYMATTR InstName R1
